7
Coordinates from ORCA-job acetaldehyde_OPT E -153.703918796834
  C       1.431160     -0.038490     -0.249220
  C      -0.021420     -0.021410     -0.036350
  O      -0.705180      0.987910     -0.318860
  H       1.779380      0.908860     -0.663920
  H       1.935760     -0.213160      0.701850
  H       1.687530     -0.841330     -0.941610
  H      -0.489980     -0.844000      0.348830
7
Coordinates from ORCA-job acetaldehyde_OPT E -153.711934812561
  C       1.438940     -0.028993     -0.254022
  C      -0.028086      0.006425     -0.045958
  O      -0.703468      0.982386     -0.317138
  H       1.791383      0.914342     -0.667774
  H       1.944625     -0.217398      0.698698
  H       1.697235     -0.843195     -0.938987
  H      -0.523380     -0.875188      0.365901
7
Coordinates from ORCA-job acetaldehyde_OPT E -153.712866732975
  C       1.441924     -0.025509     -0.255827
  C      -0.034245      0.023670     -0.051718
  O      -0.712735      0.978350     -0.314159
  H       1.798281      0.916447     -0.669616
  H       1.944423     -0.225294      0.696161
  H       1.698601     -0.847406     -0.932010
  H      -0.519000     -0.881878      0.367889
7
Coordinates from ORCA-job acetaldehyde_OPT E -153.712991023652
  C       1.442723     -0.023953     -0.256511
  C      -0.036699      0.030917     -0.053888
  O      -0.721134      0.980959     -0.314038
  H       1.803096      0.916782     -0.670462
  H       1.941297     -0.229824      0.695842
  H       1.695972     -0.850258     -0.928034
  H      -0.508005     -0.886244      0.367810
7
Coordinates from ORCA-job acetaldehyde_OPT E -153.713030657413
  C       1.442383     -0.022230     -0.257254
  C      -0.037895      0.034573     -0.055899
  O      -0.726312      0.982888     -0.313626
  H       1.807745      0.916733     -0.671079
  H       1.935983     -0.232510      0.696614
  H       1.691574     -0.852209     -0.925585
  H      -0.496229     -0.888864      0.367550
7
Coordinates from ORCA-job acetaldehyde_OPT E -153.713036822153
  C       1.441971     -0.020976     -0.257288
  C      -0.037712      0.036004     -0.054136
  O      -0.727800      0.982544     -0.314387
  H       1.810495      0.916433     -0.671554
  H       1.933925     -0.232865      0.697154
  H       1.687678     -0.852718     -0.924871
  H      -0.491308     -0.890042      0.365802
7
Coordinates from ORCA-job acetaldehyde_OPT E -153.713037397097
  C       1.441512     -0.020196     -0.258089
  C      -0.038125      0.034900     -0.057090
  O      -0.728266      0.982683     -0.312664
  H       1.813003      0.916206     -0.671621
  H       1.930309     -0.232815      0.697959
  H       1.686690     -0.852768     -0.924987
  H      -0.487872     -0.889629      0.367211
7
Coordinates from ORCA-job acetaldehyde_OPT E -153.713039772242
  C       1.441744     -0.020471     -0.257745
  C      -0.037857      0.035079     -0.055549
  O      -0.727893      0.982262     -0.313344
  H       1.812225      0.916201     -0.671631
  H       1.932107     -0.232488      0.697604
  H       1.687184     -0.852533     -0.925163
  H      -0.490260     -0.889670      0.366548
7
Coordinates from ORCA-job acetaldehyde_OPT E -153.713039896934
  C       1.441760     -0.020381     -0.257772
  C      -0.037843      0.035080     -0.055478
  O      -0.728037      0.982130     -0.313282
  H       1.812578      0.916132     -0.671678
  H       1.932075     -0.232396      0.697610
  H       1.687091     -0.852488     -0.925186
  H      -0.490373     -0.889696      0.366505
7
Coordinates from ORCA-job acetaldehyde_OPT E -153.713039972986
  C       1.441762     -0.020280     -0.257814
  C      -0.037836      0.035108     -0.055494
  O      -0.728246      0.982027     -0.313173
  H       1.812983      0.916060     -0.671732
  H       1.931960     -0.232329      0.697630
  H       1.686979     -0.852469     -0.925179
  H      -0.490353     -0.889736      0.366481
