2
Coordinates from ORCA-job carbon_monoxide_OPT E -113.231019736057
  C     -27.875039     12.166670      0.000000
  O     -26.751621     12.166670      0.000000
2
Coordinates from ORCA-job carbon_monoxide_OPT E -113.231019736216
  C     -27.875039     12.166670      0.000000
  O     -26.751621     12.166670      0.000000
