9
Coordinates from ORCA-job dimethyl_ether_OPT E -154.900929775869
  C       1.462630     -0.009770     -0.016920
  O       0.025930      0.018340      0.031760
  C      -0.505960      0.686240      1.188590
  H       1.875030      1.000620     -0.050850
  H       1.765520     -0.533870     -0.924690
  H       1.875030     -0.544350      0.841130
  H      -0.194830      0.187460      2.108660
  H      -1.595180      0.654320      1.133310
  H      -0.194830      1.732430      1.216670
9
Coordinates from ORCA-job dimethyl_ether_OPT E -154.903143018991
  C       1.430328      0.000519      0.000673
  O       0.020864      0.014416      0.025968
  C      -0.476012      0.674258      1.168224
  H       1.836354      1.019181     -0.026207
  H       1.734211     -0.522929     -0.905432
  H       1.836982     -0.531069      0.869728
  H      -0.153491      0.171234      2.088065
  H      -1.563899      0.643860      1.113704
  H      -0.151997      1.721949      1.192936
9
Coordinates from ORCA-job dimethyl_ether_OPT E -154.903293139501
  C       1.421778      0.001766      0.002439
  O       0.020956      0.014693      0.026134
  C      -0.471135      0.670466      1.161998
  H       1.830514      1.021646     -0.020436
  H       1.728212     -0.522454     -0.903247
  H       1.831169     -0.525397      0.875500
  H      -0.145424      0.170094      2.084605
  H      -1.559878      0.641773      1.109074
  H      -0.142854      1.718834      1.191594
9
Coordinates from ORCA-job dimethyl_ether_OPT E -154.903322158999
  C       1.420895      0.000928      0.000711
  O       0.021736      0.015396      0.027015
  C      -0.472638      0.669651      1.160807
  H       1.833300      1.020056     -0.020581
  H       1.728351     -0.523728     -0.904407
  H       1.833910     -0.523369      0.874594
  H      -0.146991      0.172321      2.085842
  H      -1.561462      0.641811      1.108509
  H      -0.143760      1.718354      1.195171
9
Coordinates from ORCA-job dimethyl_ether_OPT E -154.903328719360
  C       1.421098      0.000220     -0.000707
  O       0.022209      0.015783      0.027547
  C      -0.474200      0.669419      1.160569
  H       1.836158      1.018388     -0.021407
  H       1.728972     -0.524657     -0.905315
  H       1.836796     -0.522299      0.873085
  H      -0.149296      0.174274      2.087148
  H      -1.562848      0.642111      1.108513
  H      -0.145549      1.718181      1.198228
9
Coordinates from ORCA-job dimethyl_ether_OPT E -154.903328778955
  C       1.421150      0.000215     -0.000736
  O       0.022185      0.015743      0.027526
  C      -0.474248      0.669427      1.160610
  H       1.836379      1.018259     -0.021558
  H       1.729003     -0.524689     -0.905319
  H       1.837060     -0.522263      0.872917
  H      -0.149575      0.174382      2.087263
  H      -1.562882      0.642173      1.108511
  H      -0.145733      1.718173      1.198445
