3
Coordinates from ORCA-job hydrogen_sulfide_OPT E -399.261020782356
  S      -0.061310     -0.086710      0.000000
  H      -0.316460      1.250470      0.000000
  H       1.284440      0.118460      0.000000
3
Coordinates from ORCA-job hydrogen_sulfide_OPT E -399.261374661826
  S      -0.057444     -0.081252      0.000000
  H      -0.309699      1.241596      0.000000
  H       1.273812      0.121876      0.000000
3
Coordinates from ORCA-job hydrogen_sulfide_OPT E -399.261404298779
  S      -0.055572     -0.078610      0.000000
  H      -0.307903      1.238345      0.000000
  H       1.270145      0.122484      0.000000
3
Coordinates from ORCA-job hydrogen_sulfide_OPT E -399.261404558759
  S      -0.055482     -0.078482      0.000000
  H      -0.308419      1.238614      0.000000
  H       1.270571      0.122088      0.000000
3
Coordinates from ORCA-job hydrogen_sulfide_OPT E -399.261404612411
  S      -0.055350     -0.078295      0.000000
  H      -0.308789      1.238735      0.000000
  H       1.270809      0.121780      0.000000
3
Coordinates from ORCA-job hydrogen_sulfide_OPT E -399.261404612398
  S      -0.055330     -0.078266      0.000000
  H      -0.308816      1.238733      0.000000
  H       1.270816      0.121753      0.000000
