9
Coordinates from ORCA-job furan_OPT E -229.828225449977
  C      -0.426390      1.278320     -0.000000
  O      -0.006840     -0.010220      0.000000
  C       1.347460      0.002300      0.000000
  C       0.673300      2.127370     -0.000000
  C       1.797460      1.317540     -0.000000
  H      -1.404320      1.577270      0.000000
  H       1.945110     -0.828660      0.000000
  H       0.655530      3.149380     -0.000000
  H       2.769790      1.625240      0.000000
9
Coordinates from ORCA-job furan_OPT E -229.842696298674
  C      -0.414223      1.285670      0.000000
  O       0.004242      0.006551     -0.000000
  C       1.350334      0.017955      0.000000
  C       0.662589      2.129203      0.000000
  C       1.804541      1.308144     -0.000000
  H      -1.453509      1.549618     -0.000000
  H       1.933602     -0.881913      0.000000
  H       0.632281      3.202216      0.000000
  H       2.831242      1.621095     -0.000000
9
Coordinates from ORCA-job furan_OPT E -229.844911762583
  C      -0.402728      1.294797      0.000000
  O       0.010826      0.016010      0.000000
  C       1.355256      0.032328     -0.000000
  C       0.660114      2.137117      0.000000
  C       1.813691      1.308423      0.000000
  H      -1.460568      1.514247     -0.000000
  H       1.901833     -0.899533     -0.000000
  H       0.621685      3.218360     -0.000000
  H       2.850991      1.616790      0.000000
9
Coordinates from ORCA-job furan_OPT E -229.845722787436
  C      -0.395580      1.304320      0.000000
  O       0.014803      0.021398     -0.000000
  C       1.361964      0.042167      0.000000
  C       0.660935      2.146740      0.000000
  C       1.822887      1.312324     -0.000000
  H      -1.462500      1.479050     -0.000000
  H       1.868702     -0.912814      0.000000
  H       0.618254      3.228168      0.000000
  H       2.861635      1.617188     -0.000000
9
Coordinates from ORCA-job furan_OPT E -229.845862925804
  C      -0.395323      1.308204      0.000000
  O       0.015771      0.022596      0.000000
  C       1.365564      0.043516     -0.000000
  C       0.662635      2.149821     -0.000000
  C       1.825206      1.314877      0.000000
  H      -1.462274      1.467325      0.000000
  H       1.857479     -0.916568     -0.000000
  H       0.621298      3.228502     -0.000000
  H       2.860744      1.620269      0.000000
9
Coordinates from ORCA-job furan_OPT E -229.845891872125
  C      -0.396203      1.309517     -0.000000
  O       0.016055      0.022948     -0.000000
  C       1.367095      0.043019      0.000000
  C       0.663928      2.149886      0.000001
  C       1.824776      1.316070     -0.000000
  H      -1.462197      1.464239     -0.000001
  H       1.854579     -0.917580      0.000000
  H       0.625140      3.227026      0.000001
  H       2.857926      1.623414     -0.000001
9
Coordinates from ORCA-job furan_OPT E -229.845895743232
  C      -0.396590      1.309576      0.000001
  O       0.016125      0.023065      0.000000
  C       1.367274      0.042656     -0.000000
  C       0.664391      2.149329     -0.000001
  C       1.824083      1.316306      0.000001
  H      -1.462440      1.463960      0.000001
  H       1.854421     -0.917902     -0.000001
  H       0.627128      3.226448     -0.000001
  H       2.856709      1.625102      0.000001
9
Coordinates from ORCA-job furan_OPT E -229.845896554478
  C      -0.396728      1.309480     -0.000001
  O       0.016174      0.023156     -0.000000
  C       1.367223      0.042493      0.000001
  C       0.664536      2.148990      0.000001
  C       1.823718      1.316323     -0.000001
  H      -1.462719      1.463814     -0.000001
  H       1.854380     -0.918203      0.000001
  H       0.628242      3.226353      0.000002
  H       2.856271      1.626134     -0.000002
9
Coordinates from ORCA-job furan_OPT E -229.845896649303
  C      -0.396747      1.309426      0.000001
  O       0.016193      0.023190      0.000000
  C       1.367176      0.042457     -0.000001
  C       0.664508      2.148931     -0.000001
  C       1.823676      1.316274      0.000002
  H      -1.462835      1.463696      0.000002
  H       1.854306     -0.918347     -0.000002
  H       0.628610      3.226406     -0.000003
  H       2.856213      1.626506      0.000003
9
Coordinates from ORCA-job furan_OPT E -229.845896671637
  C      -0.396763      1.309389     -0.000001
  O       0.016195      0.023197     -0.000000
  C       1.367142      0.042429      0.000001
  C       0.664447      2.148923      0.000002
  C       1.823692      1.316209     -0.000002
  H      -1.462896      1.463599     -0.000003
  H       1.854233     -0.918434      0.000003
  H       0.628890      3.226440      0.000004
  H       2.856160      1.626788     -0.000004
