4
Coordinates from ORCA-job ammonia_OPT E -56.513013961152
  N      -0.011010     -0.015570      0.026970
  H      -0.329100     -0.465420     -0.833780
  H      -0.329100      0.954790     -0.013830
  H       1.009880      0.007980     -0.013830
4
Coordinates from ORCA-job ammonia_OPT E -56.513208381574
  N      -0.010316     -0.014597      0.025261
  H      -0.324925     -0.459510     -0.827808
  H      -0.324920      0.946671     -0.015963
  H       1.000830      0.009217     -0.015959
4
Coordinates from ORCA-job ammonia_OPT E -56.513215434402
  N      -0.009754     -0.013807      0.023904
  H      -0.325804     -0.460747     -0.828203
  H      -0.325811      0.947635     -0.015089
  H       1.002039      0.008700     -0.015081
4
Coordinates from ORCA-job ammonia_OPT E -56.513219364075
  N      -0.008831     -0.012509      0.021663
  H      -0.326740     -0.462061     -0.828224
  H      -0.326753      0.948310     -0.013961
  H       1.002995      0.008039     -0.013948
4
Coordinates from ORCA-job ammonia_OPT E -56.513219603432
  N      -0.008612     -0.012198      0.021117
  H      -0.326866     -0.462238     -0.828105
  H      -0.326870      0.948293     -0.013748
  H       1.003017      0.007924     -0.013735
4
Coordinates from ORCA-job ammonia_OPT E -56.513219608689
  N      -0.008597     -0.012177      0.021074
  H      -0.326859     -0.462229     -0.828075
  H      -0.326855      0.948260     -0.013741
  H       1.002981      0.007926     -0.013728
